


水利工程網  - 自由無限|溝通無限











關註水工網微博：騰訊微博[微水利] 新浪微博[水工網] 
共建共享，上傳資料 GO>>>


水利工程網 - 水利,工程,水工,水利工程,圖紙,定額,工程造價,水利論文,水利論壇>




資訊
論文
軟件
圖紙
報告
圖片
定額
人物
人才
企業
供求



 





首頁資訊論文軟件圖紙報告規範圖片定額專題企業人才論壇






[最全規範]:本站整理 定期更新
[推薦信息]:百圖土石方重大升級


[軟件銷售]:百圖 ZDM AutoBank 程序集
[新人指導]:為水利新人、學生解惑





水利資訊



2016年核電上網電量同比增24.21%
中電建:貫徹五大發展理念 落實五
國家電網完成最大境外投資項目
 汪恕誠：關於新常態下中國水電發
中國能建召開2017年工作會議
世界最亮極紫外光源成功研製
國內首座10兆瓦熔鹽塔式光熱發電
國電、華電 出手 煤電去產能
 中資建設蘇丹上阿特巴拉水利樞
預計2017年全社會用電量同比增長
 





資料推薦

 HydroCMS 0.91 個人免費版（32位 曉龍Pdf合併及拆分工具 設計院 水榭古建設計方案施工圖 建築設計常用圖塊 紅旗河項目水土保持工程實施方 水​泵​結​構​圖 一級建造師實務(2005-2012年) 混凝土面板堆石壩設計規範（SL22 橫斷面設計及工程量計算 水利水電設備安裝定額(共十章) Excel數組統計間隔數 工程設計施工計算器 新的長城——中國海外水壩行業 塔里木河流域近期綜合治理規劃 小型水利水電工程圖集--1渠道 小型農田水利水電工程圖集--2 施工組織設計 ZDM軟件堤防加固設計全攻略 CadGeo（柱狀圖） Visual MODFLOW 4.0 vect矢量化軟件 flac中文講義



 





如何被推薦?推薦信息

中國人建設的世界最大水庫：用了1600大會討論，代表們積極為水電發展和科大會選舉產生第八屆理事會理事水電學會八屆一次理事會選舉產生新習近平科雷亞共同為辛克雷水電站竣深厚覆蓋層世界最高壩電站—長河壩 








更多水利論文
鋼框架缺陷型箱形柱斜撐框架結構複雜節 [建築結構] 鋼框架缺陷型箱形柱梁柱節點抗震性[建築結構] 鳳凰國際傳媒中心工程:莫比烏斯環[建築結構] 鋼-混凝土組合空腔樓蓋技術的研究[建築結構] 裝配式鋼平臺在高層鋼結構施工中的[建築結構] 排架式鋼結構縱向結構體系設計[建築結構] 貴陽201大廈鋼結構設計介紹[建築結構] 斜撐框架結構複雜節點焊接結構優化[建築結構] 某大型變壓器廠房施工[建築結構] 葫蘆島體育館弓形桁架施工技術[建築結構] 大跨度門式剛架在工程中的應用


更多水利圖紙
水榭古建設計方案施建築設計常用圖塊 [其他 圖紙] 水榭古建設計方案施工圖[其他 圖紙] 建築設計常用圖塊[灌排 節水] 水​泵​結​構​圖[堤防 水庫] 小型水利水電工程圖集--1渠道[泵站 閘門] 小型農田水利水電工程圖集--2[灌排 節水] 小農水抽水機站施工圖[大壩 廠房] S775 40th重力式無閥濾池圖集[其他 圖紙] U型 渡槽[全套 圖紙] 橡膠壩施工照片[橋梁 隧洞] 排洪涵、便橋、排洪槽結構及配


更多水利報告
紅旗河項目水土保持一級建造師實務(200 [水保方案] 紅旗河項目水土保持工程實施方案[其他報告] 一級建造師實務(2005-2012年)歷年[其他報告] 新的長城——中國海外水壩行業指南[其他報告] 塔里木河流域近期綜合治理規劃報告[施工組織] 施工組織設計[其他報告] ZDM軟件堤防加固設計全攻略[初設報告] 某水電站廠房計算書[施工組織] 成品青石欄桿施工方案[施工組織] 高壓旋噴灌漿施工方案[畢業設計] 水工畢業設計：錦潭水電站





更多軟件資料
HydroCMS 0.91 個人曉龍Pdf合併及拆分 [其他軟件] HydroCMS 0.91 個人免費版（32位[其他軟件] 曉龍Pdf合併及拆分工具 設計院[水利規範] 混凝土面板堆石壩設計規範（SL22[CAD相關] 橫斷面設計及工程量計算[預算造價] 水利水電設備安裝定額(共十章)[水文水力] Excel數組統計間隔數[其他軟件] 工程設計施工計算器[勘測軟件] CadGeo（柱狀圖）[水文水力] Visual MODFLOW 4.0[CAD相關] vect矢量化軟件


更多水利圖片
貴州貓跳河窄巷口電安徽響洪甸抽水蓄能 [其他施工] 錨固基礎圖2.[其他施工] 錨固基礎圖1.[其他施工] 橡膠壩施工現場圖片   (步驟8)[其他施工] 橡膠壩施工現場圖片[電站工程] 貴州烏江思林水電站[電站施工] 甘肅九甸峽水利樞紐工程[電站施工] 甘肅引洮進水口工程[其他施工] 引洮1#隧洞進水口工程[水庫工程] 開封黃河歐坦控導工程[水庫工程] 遼河藥王廟險工


更多論壇精華





合作單位

水利部水規總院長委設計院ZDM軟件海南省水利院91行業網中國水利水電市場華北水利濟南百圖監測人水資訊中國路橋網中國水科技工測員環境生態網造價人四川水力發電網建設行業信息網房產裝修中國水土保持網水利工程建築資料庫中國水利水電工程網建設者中國防汛抗旱物資網大河水網公路養護土工布庫車論壇我的建築網Gis資訊測繪英才網測量員水利英才網水緣網蟲築網鐵路網快學網馬後炮化工論壇


水工網簡介 - 法律聲明 - 隱私保護 - 聯繫我們 - 廣告服務 - 誠聘英才 - 友情鏈接 - 幫助中心 - 網站地圖
本站以共建共享為宗旨，網站資料以網友共享、網絡收集為主，若侵犯您的權益，請聯繫刪除 © 2003-2012 www.abd.cn www.shuigong.com 版權所有 蜀ICP備11019236號-1






水利規範  - 水利工程網








關註水工網微博：騰訊微博[微水利] 新浪微博[水工網] 
共建共享，上傳資料 GO>>>


水利工程網 - 水利,工程,水工,水利工程,圖紙,定額,工程造價,水利論文,水利論壇>




資訊
論文
軟件
圖紙
報告
圖片
定額
人物
人才
企業
供求



 





首頁資訊論文軟件圖紙報告規範圖片定額專題企業人才論壇






[最全規範]:本站整理 定期更新
[推薦信息]:百圖土石方重大升級


[軟件銷售]:百圖 ZDM AutoBank 程序集
[新人指導]:為水利新人、學生解惑





您的位置: 首頁 > 軟件 > 水利規範

共建共享，軟件上傳

水利工程網資訊要素
[水利規範]
混凝土面板堆石壩設計規範（SL228-2013）
12887
2014-05-06
[水利規範]
水利水電新技術標準規程手冊
6010
2009-09-08
[水利規範]
DL/T5199-2004 水電水利工程混凝土防滲牆施工規範
2828
2009-09-08
[水利規範]
200811前新規範列表（點擊即可下載）
2830
2009-07-10
[水利規範]
DL/T5353-2006 水電水利工程邊坡設計規範
2536
2009-07-10
[水利規範]
GB/T 17639-2008 土工合成材料長絲紡粘針刺非織造土工布
1292
2009-07-09
[水利規範]
GB 50188 - 2007 鎮規劃標準
471
2009-07-09
[水利規範]
混凝土和鋼筋混凝土排水管工藝技術規程
956
2009-07-09
[水利規範]
水土保持監測設施通用技術條件sl342-2006
1105
2009-02-19
[水利規範]
開發建設項目水土保持設施驗收技術規程SL387-2007
2538
2009-02-19
[水利規範]
水土保持術語(GBT20465-2006)
1693
2009-02-19
[水利規範]
開發建設項目水土保持技術規範GB50433-2008
6583
2009-02-19
[水利規範]
水土保持規劃編製規程 SL335-2006
1640
2009-02-19
[水利規範]
水利工程建設監理單位資質管理辦法
704
2008-12-15
[水利規範]
水利水電工程施工總承包企業資質等級標準
1227
2008-12-15
[水利規範]
水利水電工程項目建議書編製規程(條文說明)
2952
2008-12-11
[水利規範]
水利行業有關的招投標法律法規
4028
2008-12-11
[水利規範]
工程建設項目施工招標標底編製指南
712
2008-12-01
[水利規範]
水利工程建設項目驗收管理規定
1639
2008-12-01
[水利規範]
江蘇省露採礦山環境整治技術要求
230
2008-11-24
[水利規範]
1：25萬上海市幅區域地質調查
376
2008-11-24
[水利規範]
JGJ 152-2008 混凝土中鋼筋檢測技術規程
1124
2008-11-07
[水利規範]
水利水電工程防震抗震研究設計及專題報告編製暫行規定
843
2008-10-31
[水利規範]
水利部水利工程質量監督總站直屬項目站工作手冊
734
2008-10-21
[水利規範]
水利工程質量管理規定相關資料
1942
2008-10-21
[水利規範]
JTJ004-89 公路工程抗震設計規範 條文說明
452
2008-10-13
[水利規範]
水利水電工程啟閉機製造，安裝及驗收規範
1380
2008-09-26
[水利規範]
《招標投標文件彙編》
1686
2008-09-26
[水利規範]
水利水電工程項目建議書編製規程（征求意見稿）
1068
2008-09-19
[水利規範]
水庫大壩安全鑒定辦法
1629
2008-09-05

 816    1 2 3 4 5 6 下一頁 尾頁




軟件導航

勘測軟件水文水力水工設計施工組織預算造價結構設計CAD相關其他軟件水利書籍水利規範給排水規範其他規範







推薦軟件

HydroCMS 0.91 個人免費版（32位、64曉龍Pdf合併及拆分工具 設計院用混凝土面板堆石壩設計規範（SL228-20CadGeo（柱狀圖）Visual MODFLOW 4.0水利計算程序集2008標準版



熱門軟件

現行水利水電工程施工及驗收規範
漿砌石壩設計規範（SL25-2006）
SL303-2004水利水電工程施工組織
混凝土面板堆石壩設計規範（SL228-
JTG D60-2004:公路橋涵設計通用
GB50010-2002混凝土結構設計規範
水利水電工程施工質量檢驗與評定
JGJ59-99建築施工安全檢查標準 (
水利最新標準
AQ2006－2005《尾礦庫安全技術規程






水工網簡介 - 法律聲明 - 隱私保護 - 聯繫我們 - 廣告服務 - 誠聘英才 - 友情鏈接 - 幫助中心 - 網站地圖
本站以共建共享為宗旨，網站資料以網友共享、網絡收集為主，若侵犯您的權益，請聯繫刪除 © 2003-2012 www.abd.cn www.shuigong.com 版權所有 蜀ICP備11019236號-1






水利工程網代理軟件系列 - 成都水天科技有限公司








水利工程網代理系列


首頁
ZDM
AutoBank
百圖軟件
程序集








代理軟件列表




序號
名稱


.1.
ZDM CAD輔助設計軟件


.2.
AutoBank/HH_slope


.3.
百圖水利設計系列軟件


.4.
水利水電工程設計計算程序集





成都水天科技有限公司

公司成立於2009年，依托水利行業門戶-水利工程網建立，旨在普及水利自動化設計概念，提升水利計算機技術含量。




地址
單    位：成都水天科技有限公司
				    地    址：成都人民南路4段27號商鼎國際1-2-605
				    電    話：13980758444








購買、合作聯繫

QQ：31184
Email：yeguiren@188.com
手機：13980758444
聯繫人：付功雲(yeguiren)

典型客戶

國電八大院4個
水利省級院22個
電力省級院2個
各市級設計院150餘個
 








	© 2003-2014 水利工程網 91行業網. 代理軟件系列頁面




定額  - 水利工程網








關註水工網微博：騰訊微博[微水利] 新浪微博[水工網] 
共建共享，上傳資料 GO>>>


水利工程網 - 水利,工程,水工,水利工程,圖紙,定額,工程造價,水利論文,水利論壇>




資訊
論文
軟件
圖紙
報告
圖片
定額
人物
人才
企業
供求



 





首頁資訊論文軟件圖紙報告規範圖片定額專題企業人才論壇






[最全規範]:本站整理 定期更新
[推薦信息]:百圖土石方重大升級


[軟件銷售]:百圖 ZDM AutoBank 程序集
[新人指導]:為水利新人、學生解惑





您的位置: 首頁 > 定額

共建共享，定額上傳

水利工程網資訊要素
[其他專業定額]
材料消耗定額講稿
2920
2008-10-29
[其他專業定額]
2002工程勘察收費標準
3795
2008-10-15
[水利相關定額]
水利水電工程定額與概預算
19070
2008-09-27
[水利相關定額]
預算數據手冊
5933
2008-09-27
[水利相關定額]
DB34/T 679─2007 安徽省行業用水定額
1792
2007-03-22
[水利相關定額]
“實物法”編製概算簡介
2449
2006-12-01
[水利相關定額]
沿海水工概預算
2155
2006-12-01
[水利相關定額]
2004水電定額Excel版
22310
2006-12-01
[水利相關定額]
概算表實例（新定額）
8120
2006-12-01
[水利相關定額]
概算講座知識
4700
2006-12-01
[其他專業定額]
江蘇2002建築工程單位估價表
3285
2006-11-10
[水利相關定額]
水土保持工程概算定額》(水利部水總{2003}67號)
5515
2006-10-11

 59    1 2 3 4 5 下一頁 尾頁




定額導航

水利相關定額其他專業定額







推薦定額





熱門報告

2004水電定額Excel版
水利水電工程定額與概預算
新編水利水電工程概預算（PDF書）
2002水利預算定額EXCEL版
2002水利建築工程預算定額掃描版
2001全國統一安裝定額
概算表實例（新定額）
電氣安裝定額
水利工程造價指南(基礎捲)
《土地開發整理項目預算定額標準






水工網簡介 - 法律聲明 - 隱私保護 - 聯繫我們 - 廣告服務 - 誠聘英才 - 友情鏈接 - 幫助中心 - 網站地圖
本站以共建共享為宗旨，網站資料以網友共享、網絡收集為主，若侵犯您的權益，請聯繫刪除 © 2003-2012 www.abd.cn www.shuigong.com 版權所有 蜀ICP備11019236號-1






軟件  - 水利工程網








關註水工網微博：騰訊微博[微水利] 新浪微博[水工網] 
共建共享，上傳資料 GO>>>


水利工程網 - 水利,工程,水工,水利工程,圖紙,定額,工程造價,水利論文,水利論壇>




資訊
論文
軟件
圖紙
報告
圖片
定額
人物
人才
企業
供求



 





首頁資訊論文軟件圖紙報告規範圖片定額專題企業人才論壇






[最全規範]:本站整理 定期更新
[推薦信息]:百圖土石方重大升級


[軟件銷售]:百圖 ZDM AutoBank 程序集
[新人指導]:為水利新人、學生解惑





您的位置: 首頁 > 軟件

共建共享，軟件上傳

水利工程網資訊要素
[其他軟件]
HydroCMS 0.91 個人免費版（32位、64位）
2811
2016-07-06
[其他軟件]
曉龍Pdf合併及拆分工具 設計院用
4960
2014-06-30
[水利規範]
混凝土面板堆石壩設計規範（SL228-2013）
12887
2014-05-06
[CAD相關]
橫斷面設計及工程量計算
8074
2013-12-30
[預算造價]
水利水電設備安裝定額(共十章)
5830
2013-07-21
[水文水力]
Excel數組統計間隔數
3486
2013-07-12
[其他軟件]
工程設計施工計算器
7597
2013-07-04
[勘測軟件]
CadGeo（柱狀圖）
4298
2013-01-14
[水文水力]
Visual MODFLOW 4.0
5645
2012-12-26
[CAD相關]
vect矢量化軟件
3880
2012-12-26
[CAD相關]
flac中文講義
1943
2012-12-26
[水工設計]
大型泵站鐘型流道設計計算
1907
2012-12-26
[其他軟件]
《函數寶典》史上最人性化的函數工具辭典
3075
2012-12-11
[水工設計]
水利計算程序集2008標準版
11831
2012-12-05
[結構設計]
梁配筋軟件
4412
2012-12-05
[水文水力]
水庫調洪演算
6140
2012-12-05
[結構設計]
鋼閘門啟閉力計算程序
4040
2012-12-05
[水文水力]
河道水位流量關係計算
7173
2012-12-05
[CAD相關]
科瑞計算器
2105
2012-12-05
[CAD相關]
CAD填充圖案
7657
2012-12-05
[水文水力]
洪水過程線推求（三角形概化法）
3099
2012-12-05
[CAD相關]
PDF to DWG 轉換軟件
3316
2012-12-05
[CAD相關]
CAD版本轉換器  Acme CAD Converter
821
2012-12-05
[預算造價]
土地開發整理項目造價管理系統V2012
1455
2012-12-04
[結構設計]
鋼筋混凝土配筋計算表excel
5135
2012-12-04
[其他軟件]
電子錶格宏病毒專殺工具
552
2012-12-04
[水文水力]
小型水庫調洪及相關水力計算彙總
1658
2012-12-04
[CAD相關]
SLC_CAD 2011 Demo版
874
2012-10-10
[水文水力]
等值線繪製軟件 1.0版
2304
2012-06-12
[水工設計]
AutoBank 7.073 免費評估版安裝文件
5721
2012-05-29

 2815    1 2 3 4 5 6 下一頁 尾頁




軟件導航

勘測軟件水文水力水工設計施工組織預算造價結構設計CAD相關其他軟件水利書籍水利規範給排水規範其他規範







推薦軟件

HydroCMS 0.91 個人免費版（32位、64曉龍Pdf合併及拆分工具 設計院用混凝土面板堆石壩設計規範（SL228-20CadGeo（柱狀圖）Visual MODFLOW 4.0水利計算程序集2008標準版



熱門軟件

AutoCAD 2007 簡體中文版[BT種子
CAD字體大全[310種]
CAD轉PDF轉換器
常用的CAD字體庫
Auto CAD使用技巧集錦
CAD病毒查殺工具
數字字體
AutoCAD 2007 簡體中文版
公式編輯器
MapGis教程合輯






水工網簡介 - 法律聲明 - 隱私保護 - 聯繫我們 - 廣告服務 - 誠聘英才 - 友情鏈接 - 幫助中心 - 網站地圖
本站以共建共享為宗旨，網站資料以網友共享、網絡收集為主，若侵犯您的權益，請聯繫刪除 © 2003-2012 www.abd.cn www.shuigong.com 版權所有 蜀ICP備11019236號-1






施工組織  - 水利工程網








關註水工網微博：騰訊微博[微水利] 新浪微博[水工網] 
共建共享，上傳資料 GO>>>


水利工程網 - 水利,工程,水工,水利工程,圖紙,定額,工程造價,水利論文,水利論壇>




資訊
論文
軟件
圖紙
報告
圖片
定額
人物
人才
企業
供求



 





首頁資訊論文軟件圖紙報告規範圖片定額專題企業人才論壇






[最全規範]:本站整理 定期更新
[推薦信息]:百圖土石方重大升級


[軟件銷售]:百圖 ZDM AutoBank 程序集
[新人指導]:為水利新人、學生解惑





您的位置: 首頁 > 報告 > 施工組織

共建共享，報告上傳

水利工程網資訊要素
[施工組織]
施工組織設計
6526
2013-04-23
[施工組織]
成品青石欄桿施工方案
2510
2011-07-21
[施工組織]
高壓旋噴灌漿施工方案
4012
2011-07-14
[施工組織]
農業綜合開發施工組織設計實例
1629
2009-09-09
[施工組織]
土地平整施工組織設計樣板
1910
2009-09-09
[施工組織]
湖北水利工程驗收報告
1834
2009-09-06
[施工組織]
三明大阪施工組織2
290
2009-08-04
[施工組織]
滑坡勘查報告
1351
2009-03-02
[施工組織]
某工程監理細則
1023
2009-01-08
[施工組織]
水利工程施工工藝集合
2815
2008-12-31
[施工組織]
建築施工管理資料全套表格
1551
2008-12-30
[施工組織]
某重力壩畢業設計報告
1761
2008-12-30
[施工組織]
土石壩設計
2925
2008-12-30
[施工組織]
福建某大型碼頭施工組織
358
2008-12-15
[施工組織]
沈陽農業大學北方超級稻研究所實驗樓工程地質勘察報告
431
2008-10-27
[施工組織]
一個河堤工程六標施工組織設計
1722
2008-09-26
[施工組織]
旋挖鑽機施工工藝及控制
538
2008-09-26
[施工組織]
大壩、溢洪道、料場資料
1048
2008-09-26
[施工組織]
灌漿資料合集
1362
2008-09-25
[施工組織]
高壓噴射灌漿相關資料
782
2008-09-25
[施工組織]
太浦河泵站工程深基坑設計與實施
302
2008-09-25
[施工組織]
土工布鋪設施工程序及工藝
1214
2008-09-25
[施工組織]
土方施工基本知識
1215
2008-09-19
[施工組織]
水電站檢修、滲漏排水系統安裝施工措施
287
2008-07-31
[施工組織]
工程施工管理流程圖
2865
2008-07-24
[施工組織]
XXX工程佈置及建築物範本
376
2008-07-24
[施工組織]
竣工資料彙編
2215
2008-07-21
[施工組織]
金河金水水利樞紐碾壓混凝土重力壩設計
977
2008-07-21
[施工組織]
一個投標用的灌漿施組
516
2008-06-24
[施工組織]
 X市X縣農村飲水安全工程總體規劃報告
889
2008-05-29

 327    1 2 3 4 5 6 下一頁 尾頁




報告導航

可研報告初設報告施工組織經濟評價水保方案課程設計畢業設計其他報告







推薦報告

紅旗河項目水土保持工程實施方案一級建造師實務(2005-2012年)歷年新的長城——中國海外水壩行業指南ZDM軟件堤防加固設計全攻略橡膠壩設計報告書某小流域綜合治理初步設計報告



熱門報告

《建設工程監理與相關服務收費管
魯班獎施工組織設計50例（基本都是
土地整理項目的施工組織設計
某工程竣工報告
鑽孔灌註樁的施工技術方案
施工組織設計
農田水利工程施工組織設計
標準全面的公路施工組織設計
土地平整施工方案
XX公路施工組織設計報告






水工網簡介 - 法律聲明 - 隱私保護 - 聯繫我們 - 廣告服務 - 誠聘英才 - 友情鏈接 - 幫助中心 - 網站地圖
本站以共建共享為宗旨，網站資料以網友共享、網絡收集為主，若侵犯您的權益，請聯繫刪除 © 2003-2012 www.abd.cn www.shuigong.com 版權所有 蜀ICP備11019236號-1






初設報告  - 水利工程網








關註水工網微博：騰訊微博[微水利] 新浪微博[水工網] 
共建共享，上傳資料 GO>>>


水利工程網 - 水利,工程,水工,水利工程,圖紙,定額,工程造價,水利論文,水利論壇>




資訊
論文
軟件
圖紙
報告
圖片
定額
人物
人才
企業
供求



 





首頁資訊論文軟件圖紙報告規範圖片定額專題企業人才論壇






[最全規範]:本站整理 定期更新
[推薦信息]:百圖土石方重大升級


[軟件銷售]:百圖 ZDM AutoBank 程序集
[新人指導]:為水利新人、學生解惑





您的位置: 首頁 > 報告 > 初設報告

共建共享，報告上傳

水利工程網資訊要素
[初設報告]
某水電站廠房計算書
2935
2012-12-26
[初設報告]
中型水庫除險加固初步設計
1806
2009-09-03
[初設報告]
漢中市石門水庫除險加固工程初步驗收工作報告
1077
2008-10-06
[初設報告]
水電站初步設計階段移民安置規劃設計報告
882
2008-08-22
[初設報告]
長治項目初步設計文本
756
2008-06-25
[初設報告]
 某電站初步設計報告
1412
2008-06-16
[初設報告]
 張莊水庫除險加固工程設計報告（改）
1420
2008-06-10
[初設報告]
人飲規劃設計
1295
2008-05-29
[初設報告]
洞口水庫除險加固工程初步設計報告
1548
2008-04-01
[初設報告]
路基帷幕和壓力註漿復灌檢測試驗報告
349
2008-03-13
[初設報告]
元壩區煙水配套工程規劃報告
857
2007-09-16
[初設報告]
灌漿荷載下洞室的有限元穩定性分析
299
2007-08-01
[初設報告]
縣城供水工程設計工作報告
3005
2007-04-10
[初設報告]
某小流域骨幹壩初步設計報告
1069
2007-03-26
[初設報告]
湖北省神農架林區中嶺水庫電站環境影響報告書
680
2007-03-23
[初設報告]
靈泉鄉農村飲水安全供水工程初步設計報告
2762
2007-02-01
[初設報告]
小型水庫除險加固初步設計報告書
3240
2007-01-30
[初設報告]
供水工程初步設計報告
2531
2006-12-09
[初設報告]
青海省海晏縣哈勒景鄉哈勒景村草原節水灌溉示範項目可行性研究報告
854
2006-12-05
[初設報告]
石面坦灌區續建配套工程初步設計報告
896
2006-12-05
[初設報告]
浙江省景寧縣梧桐鄉高演土地整理工程規劃報告
574
2006-11-27
[初設報告]
武平縣洪水預警報系統 初步設計報告
431
2006-11-22
[初設報告]
下山電站初設報告
905
2006-11-21
[初設報告]
農業綜合開發項目初設報告及全套圖紙
2154
2006-11-15
[初設報告]
圍海工程 初步設計階段設計大綱範本
374
2006-11-10
[初設報告]
土地整理項目規劃設計報告
850
2006-11-09
[初設報告]
浙江省海塘初步設計
339
2006-10-27
[初設報告]
北方山區小流域綜合治理初步設計報告
875
2006-09-16
[初設報告]
北方地區小流域水土保持規劃設計報告
782
2006-09-15
[初設報告]
北方地區山前沖積扇經濟林建設初步設計報告
263
2006-09-15

 110    1 2 3 4 下一頁 尾頁




報告導航

可研報告初設報告施工組織經濟評價水保方案課程設計畢業設計其他報告







推薦報告

紅旗河項目水土保持工程實施方案一級建造師實務(2005-2012年)歷年新的長城——中國海外水壩行業指南ZDM軟件堤防加固設計全攻略橡膠壩設計報告書某小流域綜合治理初步設計報告



熱門報告

某小流域綜合治理初步設計報告
橡膠壩設計報告書
水利水電工程初設報告編製規程(
小型水庫除險加固初步設計報告書
縣城供水工程設計工作報告
某水電站廠房計算書
靈泉鄉農村飲水安全供水工程初步
某水閘初步設計圖紙報告
橡膠壩設計報告書
供水工程初步設計報告






水工網簡介 - 法律聲明 - 隱私保護 - 聯繫我們 - 廣告服務 - 誠聘英才 - 友情鏈接 - 幫助中心 - 網站地圖
本站以共建共享為宗旨，網站資料以網友共享、網絡收集為主，若侵犯您的權益，請聯繫刪除 © 2003-2012 www.abd.cn www.shuigong.com 版權所有 蜀ICP備11019236號-1






水利工程 - 維基百科，自由的百科全書































 






水利工程

維基百科，自由的百科全書


					跳轉至：					導航，					搜索





水壩與堤防






分洪道






防波石可以防止河岸沖刷流失


水利工程（Hydraulic engineering）是為了控制、利用和保護地表及地下的水資源與環境而修建的各項工程建設的總稱。
簡介[編輯]
土木工程中著重於水流體的自然運動與人工輸送及利用的一門分支。該工程領域與橋梁、水壩、河道、運河以及堤防等關於水流、江川及洋海堤道工程的設計與施工有著密切的關聯，亦涉及公共衛生與環境工程等這些和水相關的環境生態及用水範疇。
水利工程主要的工作為各種水工結構物，包括水壩與河海堤防、給水管網（Water Distribution Networks）與集水管網（Water Collection Networks）、生態永續、洪水管理（Storm Water Management）、沉積物運移（Sediment Transport）以及其他的與水土保持工程和大地工程有關的事務。
主要分支[編輯]

防洪工程
水利樞紐工程
水利水電工程
航道整治工程
跨流域開發工程
農田水利工程
港口工程
水土保持工程
給水工程
排水工程

外部鏈接[編輯]

經濟部水利署
逢甲大學 水利工程與資源保育學系
網易水利在線






規範控制



LCCN: sh85063305
GND: 4064700-6











這是一篇與科技相關的小作品。你可以通過編輯或修訂擴充其內容。


查
論
編









 
						取自“https://zh.wikipedia.org/w/index.php?title=水利工程&oldid=41952936”					
分類：水利工程土木工程隱藏分類：包含規範控制信息的維基百科條目全部小作品科學技術小作品 



導航菜單


個人工具

沒有登錄討論貢獻創建賬戶登錄 



命名空間

條目
討論




不轉換



不轉換
簡體
繁體
大陸簡體
香港繁體
澳門繁體
馬新簡體
台灣正體






視圖

閱讀
編輯
查看歷史



更多







搜索



 







導航


首頁分類索引特色內容新聞動態最近更改隨機條目 



幫助


幫助維基社群方針與指引互助客棧知識問答字詞轉換IRC即時聊天聯絡我們關於維基百科資助維基百科 



在其他項目中


維基共享資源 



打印/導出


下載為PDF 



工具


鏈入頁面相關更改上傳文件特殊頁面打印頁面固定鏈接頁面信息維基數據項引用本頁 



其他語言


العربيةCatalàکوردیDeutschEnglishEspañolEestiفارسیעבריתहिन्दीHrvatskiՀայերենBahasa IndonesiaItaliano日本語МонголNederlandsPolskiPortuguêsRomânăРусскийSrpskohrvatski / српскохрватскиSlovenščinaSvenskaதமிழ்ไทย 
編輯鏈接 





 本頁面最後修訂於2016年10月27日 (星期四) 20:03。
本站的全部文字在知識共享 署名-相同方式共享 3.0協議之條款下提供，附加條款亦可能應用。（請參閱使用條款）
Wikipedia®和維基百科標誌是維基媒體基金會的註冊商標；維基™是維基媒體基金會的商標。
維基媒體基金會是在美國佛羅里達州登記的501(c)(3)免稅、非營利、慈善機構。


隱私政策
關於維基百科
免責聲明
開發者
Cookie聲明
手機版視圖



 

 











水利工程_互動百科
























首頁
百科圖片
百科IN詞
微百科
行業百科
企業百科
百科權威用戶
百科任務

正在加載中...





 
 
 

 
 

 
 
 



 



編輯

討論

分享
新浪微博
微信
					掃描二維碼用手機瀏覽詞條
 新知社 QQ空間

0

 


水利工程


開放分類：學科建造水利工程洪水能源科學


水利工程是用於控制和調配自然界的地表水和地下水，達到除害興利目的而修建的工程。也稱為水工程。水是人類生產和生活必不可少的寶貴資源，但其自然存在的狀態並不完全符合人類的需要。只有修建水利工程，才能控制水流，防止洪澇災害，併進行水量的調節和分配，以滿足人民生活和生產對水資源的需要。水利工程需要修建壩、堤、溢洪道、水閘、進水口、渠道、渡漕、筏道、魚道等不同類型的水工建築物，以實現其目標。編輯摘要

 


基本信息
        編輯信息模塊



中文名：
水利工程



英文名：
water project
 





別 名：
hydroproject



作 用：
控制和調配地表水和地下水
  

目 的：
除害興利目的而修建的工程



特 點：
工程量大；投資多
 




目錄



1基本信息

分類
特點
可供水量
組成


規劃
展望
建設
運用

2發展




3本科專業設置

培養目標
培養要求

4註冊水利工程










1基本信息



1.1分類


1.2特點


1.3可供水量


1.4組成


1.5規劃


1.6展望


1.7建設


1.8運用


2發展



3本科專業設置



3.1培養目標


3.2培養要求


4註冊水利工程












 基本信息/水利工程 編輯


 分類水利工程按目的或服務對象可分為：防止洪水災害的防洪工程；防止旱、澇、漬災為農業生產服務的農田水利工程,或稱灌溉和排水工程;將水能轉化為電能的水力發電工程；改善和創建航運條件的航道和港口工程；為工業和生活用水服務，並處理和排除污水和雨水的城鎮供水和排水工程；防止水土流失和水質污染，維護生態平衡的水土保持工程和環境水利工程；保護和增進漁業生產的漁業水利工程；圍海造田，滿足工農業生產或交通運輸需要的海塗圍墾工程等。一項水利工程同時為防洪、灌溉、發電、航運等多種目標服務的，稱為綜合利用水利工程。蓄水工程指水庫和塘壩（不包括專為引水、提水工程修建的調節水庫），按大、中、小型水庫和塘壩分別統計。 引水工程 指從河道、湖泊等地表水體自流引水的工程（不包括從蓄水、提水工程中引水的工程），按大、中、小型規模分別統計。 提水工程指利用揚水泵站從河道、湖泊等地表水體提水的工程（不包括從蓄水、引水工程中提水的工程），按大、中、小型規模分別統計。調水工程指水資源一級區或獨立流域之間的跨流域調水工程，蓄、引、提工程中均不包括調水工程的配套工程。地下水源工程指利用地下水的水井工程，按淺層地下水和深層承壓水分別統計。 特點1、單項水利工程是同一流域，同一地區內各項水利工程的有機組成部分，這些工程既相輔相成，又相互制約；單項水利工程自身往往是綜合性的，各服務目標之間既緊密聯繫，又相互矛盾。水利工程和國民經濟的其他部門也是緊密相關的。規劃設計水利工程必須從全局出發，系統地、綜合地進行分析研究，才能得到最為經濟合理的優化方案。2、對環境有很大影響。水利工程不僅通過其建設任務對所在地區的經濟和社會發生影響，而且對江河、湖泊以及附近地區的自然面貌、生態環境、自然景觀，甚至對區域氣候，都將產生不同程度的影響。這種影響有利有弊，規劃設計時必須對這種影響進行充分估計，努力發揮水利工程的積極作用，消除其消極影響。水利工程3、工作條件複雜。水利工程中各種水工建築物都是在難以確切把握的氣象、水文、地質等自然條件下進行施工和運行的，它們又多承受水的推力、浮力、滲透力、沖刷力等的作用，工作條件較其他建築物更為複雜。4、水利工程的效益具有隨機性，根據每年水文狀況不同而效益不同，農田水利工程還與氣象條件的變化有密切聯繫。影響面廣。5、水利工程一般規模大，技術複雜，工期較長，投資多，興建時必須按照基本建設程序和有關標準進行。 可供水量可供水量分為單項工程可供水量與區域可供水量。一般來說，區域內相互聯繫的工程之間，具有一定的補償和調節作用，區域可供水量不是區域內各單項工程可供水量單相加之和。區域可供水量是由新增工程與原有工程所組成的供水系統，根據規划水平年的需水要求，經過調節計算後得出。區域可供水量區域可供水量是由若干個單項工程、計算單元的可供水量組成。區域可供水量，一般通過建立區域可供水量預測模型進行。在每個計算區域內，將存在相互聯繫的各類水利工程組成一個供水系統，按一定的原則和運行方式聯合調算。聯合調算要註意避免重覆計算供水量。對於區域內其他不存在相互聯繫的工程則按單項工程方法計算。可供水量計算主要採用典型年法，來水系列資料比較完整的區域，也有採用長系列調算法進行可供水量計算。蓄水工程指水庫和塘壩（不包括專為引水、提水工程修建的調節水庫），按大、中、小型水庫和塘壩分別統計。引水工程指從河道、湖泊等地表水體自流引水的工程（不包括從蓄水、提水工程中引水的工程），按大、中、小型規模分別統計。提水工程指利用揚水泵站從河道、湖泊等地表水體提水的工程（不包括從蓄水、引水工程中提水的工程），按大、中、小型規模分別統計。調水工程指水資源一級區或獨立流域之間的跨流域調水工程，蓄、引、提工程中均不包括調水工程的配套工程。地下水源工程指利用地下水的水井工程，按淺層地下水和深層承壓水分別統計。地下水利用研究地下水資源的開發和利用，使之更好地為國民經濟各部門（如城市給水、工礦企業用水、農業用水等）服務。農業上的地下水利用，就是合理開發與有效地利用地下水進行灌溉或排灌結合改良土壤以及農牧業給水。必鬚根據地區的水文地質條件、水文氣象條件和用水條件，進行全面規劃。在對地下水資源進行評價和摸清可開采量的基礎上，制訂開發計劃與工程措施。在地下水利用規劃中要遵循以下原則：（1）充分利用地面水，合理開發地下水，做到地下水和地面水統籌安排；（2）應根據各含水層的補水能力，確定各層水井數目和開采量，做到分層取水，淺、中、深結合，合理佈局；（3）必須與旱澇鹼鹹的治理結合，統一規劃，做到既保障灌溉，又降低地下水位、防鹼防漬；既開采了地下水，又騰空了地下庫容；使汛期能存蓄降雨和地面徑流，併為治澇治鹼創造條件。在利用地下水的過程中，還須加強管理，避免盲目開采而引起不良後果。淺層地下水指與當地降水、地表水體有直接補排關係的潛水和與潛水有緊密水力聯繫的弱承壓水。其他水源工程包括集雨工程、污水處理再利用和海水利用等供水工程。集雨工程指用人工收集儲存屋頂 組成無論是治理水害或開發水利，都需要通過一定數量的水工建築物來實現。按照功用，水工建築物大體分為三類：①擋水建築物；②泄水建築物；③專門水工建築物。由若干座水工建築物組成的集合體稱水利樞紐。水利工程擋水建築物阻擋或攔束水流、擁高或調節上游水位的建築物，一般橫跨河道者稱為壩，沿水流方向在河道兩側修築者稱為堤。 壩是形成水庫的關鍵性工程。近代修建的壩，大多數採用當地土石料填築的土石壩或用混凝土灌築的重力壩，它依靠壩體自身的重量維持壩的穩定。當河谷狹窄時，可採用平面上呈弧線的拱壩。在缺乏足夠築壩材料時，可採用鋼筋混凝土的輕型壩（俗稱支墩壩），但它抵抗地震作用的能力和耐久性都較差。砌石壩是一種古老的壩，不易機械化施工，目前主要用於中小型工程。大壩設計中要解決的主要問題是壩體抵抗滑動或傾覆的穩定性、防止壩體自身的破裂和滲漏。土石壩或砂、土地基，防止滲流引起的土顆粒移動破壞（即所謂“管涌”和“流土”）占有更重要的地位。在地震區建壩時，還要註意壩體或地基中浸水飽和的無粘性砂料、在地震時發生強度突然消失而引起滑動的可能性，即所謂“液化現象”（見砂土液化）。泄水建築物能從水庫安全可靠地放泄多餘或需要水量的建築物。歷史上曾有不少土石壩，因洪水超過水庫容量而漫頂造成潰壩。為保證土石壩的安全，必須在水利樞紐中設河岸溢洪道，一旦水庫水位超過規定水位，多餘水量將經由溢洪道泄出。混凝土壩有較強的抗沖刷能力，可利用壩體過水泄洪，稱溢流壩。 修建泄水建築物，關鍵是要解決好消能和防蝕、抗磨問題。泄出的水流一般具有較大的動能和沖刷力，為保證下游安全，常利用水流內部的撞擊和摩擦消除能量，如水躍或挑流消能等。當流速大於每秒10～15米時，泄水建築物中行水部分的某些不規則地段可能出現所謂空蝕破壞，即由高速水流在臨近邊壁處出現的真空穴所造成的破壞。防止空蝕的主要方法是儘量採用流線形體形，提高壓力或降低流速，採用高強材料以及向局部地區通氣等。多泥沙河流或當水中夾帶有石渣時，還必須解決抵抗磨損的問題。專門水工建築物除上述兩類常見的一般性建築物外，為某一專門目的或為完成某一特定任務所設的建築物。 渠道是輸水建築物，多數用於灌溉和引水工程。當遇高山擋路，可盤山繞行或開鑿輸水隧洞穿過（見水工隧洞）；如與河、溝相交，則需設渡槽或倒虹吸，此外還有同橋梁、涵洞等交叉的建築物。水力發電站樞紐按其廠房位置和引水方式有河床式、壩後式、引水道式和地下式等。水電站建築物主要有集中水位落差的引水系統，防止突然停車時產生過大水擊壓力的調壓系統，水電站廠房以及尾水系統等。通過水電站建築物的流速一般較小，但這些建築物往往承受著較大的水壓力，因此，許多部位要用鋼結構。水庫建成後大壩阻攔了船隻、木筏、竹筏以及魚類回游等的原有通路,對航運和養殖的影響較大。為此,應專門修建過船、過筏、過魚的船閘、筏道和魚道。這些建築物具有較強的地方性，修建前要作專門研究。 規划水利工程規劃的目的是全面考慮、合理安排地面和地下水資源的控制、開發和使用方式，最大限度地做到安全、經濟、高效。水利工程規劃要解決的問題大體有以下幾個方面：根據需要和可能確定各種治理和開發目標，按照當地的自然、經濟和社會條件選擇合理的工程規模，制定安全、經濟、運用管理方便的工程佈置方案。因此，應首先做好被治理或開發河流流域的水文和水文地質方面的調查研究工作，掌握水資源的分佈狀況。水利工程工程地質資料是水利工程規劃中必須先行研究的又一重要內容，以判別修建工程的可能性和為水工建築物選擇有利的地基條件並研究必要的補強措施。 水庫是治理河流和開發水資源中普遍應用的工程形式。在深山狹谷或丘陵地帶，可利用天然地形構成的盆地儲存多餘的或暫時不用的水,供需要時引用。因此,水庫的作用主要是調節徑流分配，提高水位，集中水面落差，以便為防洪、發電、灌溉、供水、養殖和改善下游通航創造條件。為此，在規劃階段，須沿河道選擇適當的位置或盆地的喉部，修建擋水的攔河大壩以及向下游宣泄河水的水工建築物。在多泥沙河流，常因泥沙淤積使水庫容積逐年減少，因此還要估計水庫壽命或配備專門的沖沙、排沙設施。現代大型水利工程，很多具有綜合開發治理的特點，故常稱“綜合利用水利樞紐工程”。它往往兼顧了所在流域的防洪、灌溉、發電、通航、河道治理和跨流域的引水或調水，有時甚至還包括養殖、給水或其它開發目標。然而，要制止水患開發水利，除建設大型骨幹工程外，還要依靠大量的中小型水利工程，從面上控制水情並保證大型工程得以發揮骨幹效用。防止對周圍環境的污染，保持生態平衡，也是水利工程規劃中必須研究的重要課題。由此可見，水利工程不僅是一門綜合性很強的科學技術，而且還受到社會、經濟甚至政治因素的制約。 展望當前世界多數國家出現人口增長過快，可利用水資源不足，城鎮供水緊張，能源短缺，生態環境惡化等重大問題，都與水有密切聯繫。水災防治、水資源的充分開發利用成為當代社會經濟發展的重大課題。水利工程的發展趨勢主要是：1、防治水災的工程措施與非工程措施進一步結合,非工程措施越來越占重要地位；2、水資源的開發利用進一步向綜合性、多目標發展；3、水利工程的作用，不僅要滿足日益增長的人民生活和工農業生產發展的需要，而且要更多地為保護和改善環境服務；4、大區域、大範圍的水資源調配工程，如跨流域引水工程，將進一步發展；5、由於新的勘探技術、新的分析計算和監測試驗手段以及新材料、新工藝的發展，複雜地基和高水頭水工建築物將隨之得到發展，當地材料將得到更廣泛的應用，水工建築物的造價將會進一步降低；6、水資源和水利工程的統一管理、統一調度將逐步加強。研究防止水患、開發水利資源的方法及選擇和建設各項工程設施的科學技術。主要是通過工程建設，控制或調整天然水在空間和時間的分佈，防止或減少旱澇洪水災害，合理開發和充分利用水利資源，為工農業生產和人民生活提供良好的環境和物質條件。水利工程包括排水灌溉工程(又稱農田水利工程)、水土保持工程、治河工程、防洪工程、跨流域的調水工程、水力發電工程和內河航道工程等。其他如養殖工程、給水和排水工程、海岸工程等，雖和水利工程有關，但現常被列為土木工程的其他分支或其他專門性的工程學科。水利工程原是土木工程的一個分支。由於水利工程本身的發展，逐漸具有自己的特點,以及在國民經濟中的地位日益重要,已成為一門相對獨立的技術學科，但仍和土木工程的許多分支保持著密切的聯繫。 建設水利工程水利工程的施工有許多地方和其它土木工程類同。導流問題是水利工程施工中的重要環節，常常控制著工程進度。在寬闊河道，一般採用分段圍堰的方法，先在河道一側圍出基坑進行這一段攔河閘壩的施工，河水由另一側通過。這一側完工後，便轉移至另一側施工，河水從已建的部分建築物通過。用圍堰攔截水流強令其轉移至已建工程通過，稱為截流。此外，還有採用河岸泄水隧洞或壩身底孔導流，這些洞和孔有時專為施工期的導流而設，但也可在施工完畢後留作永久泄水設施。水利工程的施工周期一般都較長，短則1～2年，長則5～10年。水利工程的安危常關係到國計民生，工程建成後如不妥善管理，不僅不能積極發揮應有的效用，而且會帶來不幸和災難。運營管理工作中最主要的是監測、維修和科學地使用。為此，每個水利工程一般都設有專門的運營管理機構,它是管理單位,又是生產單位。一個大型綜合利用水利樞紐工程，往往和國民經濟中的若干部門有關。為更有效地發揮工程作用和充分經濟、合理、安全地利用水力資源，必需加強協調和統一指揮。 運用水利工程是可供水量分為單項工程可供水量與區域可供水量。一般來說，區域內相互聯繫的工程之間，具有一定的補償和調節作用，區域可供水量不是區域內各單項工程可供水量單相加之和。區域可供水量是由新增工程與原有工程所組成的供水系統，根據規划水平年的需水要求，經過調節計算後得出。地下水利用研究地下水資源的開發和利用，使之更好地為國民經濟各部門（如城市給水、工礦企業用水、農業用水等）服務。農業上的地下水利用，就是合理開發與有效地利用地下水進行灌溉或排灌結合改良土壤以及農牧業給水。必鬚根據地區的水文地質條件、水文氣象條件和用水條件，進行全面規劃。在對地下水資源進行評價和摸清可開采量的基礎上，制訂開發計劃與工程措施。在地下水利用規劃中要遵循以下原則：（1）充分利用地面水，合理開發地下水，做到地下水和地面水統籌安排；（2）應根據各含水層的補水能力，確定各層水井數目和開采量，做到分層取水，淺、中、深結合，合理佈局；（3）必須與旱澇鹼鹹的治理結合，統一規劃，做到既保障灌溉，又降低地下水位、防鹼防漬；既開采了地下水，又騰空了地下庫容；使汛期能存蓄降雨和地面徑流，併為治澇治鹼創造條件。在利用地下水的過程中，還須加強管理，避免盲目開采而引起不良後果。 淺層地下水指與當地降水、地表水體有直接補排關係的潛水和與潛水有緊密水力聯繫的弱承壓水。其他水源工程包括集雨工程、污水處理再利用和海水利用等供水工程。集雨工程指用人工收集儲存屋頂。
 發展/水利工程 編輯


我國人均水資源並不豐富，且時空分佈不均，這決定了我國是一個水旱災害頻繁而嚴重的國家。《2013-2017年中國水利工程行業領先企業經營策略與優劣勢分析報告》顯示，我國水旱災害直接經濟損失占各類自然災害直接經濟總損失的60%左右。1990年以來，全國年均洪澇災害損失在1100億元左右，約占同期GDP 的2%；遇到發生流域性大洪水的年份，該比例可達3%-4%。水利工程行業是一個極度依賴政府投資的行業，而水利投資長期滯後導致了減災效果的不理想。數據顯示，水利投資占FAI、GDP的比重在2002-2008年間持續下滑，2009年由於四萬億投資拉動而略有上升，占到GDP的0.56%，2010年水利建設投資為2328億元，占到GDP的0.58%，但依然保持較低水平，無法適應經濟高速發展，預計水利建設將全面加速。國務院2010年11月份批覆的《全國水資源綜合規劃》為未來15-20年間水資源的綜合開發、利用、節約和保護等定下主基調，水資源正式上升到國家資源戰略層面的高度。由於關乎通脹和糧食安全問題，農村水利將成為重中之重；而為達到節能減排目標，水電建設預計仍將持續快速推進。水利行業從2009年開始已邁入了加速通道，上行趨勢已經確立，“十二五”期間水利建設投資將達到2.11萬億，比“十一五”期間增長183.85%。隨著水利工程行業競爭的不斷加劇，大型水利工程企業間併購整合與資本運作日趨頻繁，國內優秀的水利工程企業愈來愈重視對行業市場的研究，特別是對企業發展環境和客戶需求趨勢變化的深入研究。正因為如此，一大批國內優秀的水利工程企業迅速崛起，逐漸成為水利工程行業中的翹楚!
 本科專業設置/水利工程 編輯


 培養目標本專業培養具有水利水電工程的勘測、規劃、設計、施工、科研和管理等方面的知識，能在水利、水電等部門從事規劃、設計、施工、科研和管理等方面工作的高級工程技術人才。 培養要求本專業學生主要學習水利水電工程建設所必需的數學、力學和建築結構等方面的基本理論和基本知識，使學生得到必要的工程設計方法、施工管理方法和科學研究方法的基本訓練，具有水利水電工程勘測、規劃、設計、施工、科研和管理等方面的基本能力。
 註冊水利工程/水利工程 編輯


一、水利工程的經營範圍河道疏浚，小型水利工程及配套工程的施工服務，建築材料、水利物資配件的批售。（涉及行政許可的，憑許可證經營）。二、上海註冊水利工程公司查名註意1、水利工程公司組成格式：行政區劃＋字號＋行業特點＋組織形式 或者 字號+(上海)＋行業特點＋組織形式。2、依據《中華人民共和國公司法》、《中華人民共和國中外合資經營企業法》《中華人民共和國中外合作經營企業法》、《中華人民共和國外資企業法》申請登記的企業名稱，其組織形式為有限公司(有限責任公司)或者股份有限公司；依據其它法律、法規申請登記的企業名稱，組織形式不得申請為“有限公司(有限責任公司)”或“股份有限公司”，非公司制企業可以申請用“廠”、“店”、“部”、“中心”等作為企業名稱的組織形式3、 企業名稱中的字號應當由2個以上漢字組成，行政區劃不得用作字號，但縣以上行政區劃地名具有其他含義的除外。企業名稱可以使用自然人投資人的姓名作字號三、上海註冊水利工程公司工商辦理需知註冊公司辦理營業執照（需1周時間）辦理營業執照所需材料僅供您參考，所有資料由我們提供：1、公司董事長或執行董事簽署的《公司設立登記申請書》2、公司申請註冊登記的委托書3、公司股東會決議4、公司董事會決議5、監事會決議6、公司章程7、股東或者發起人的法人資格證明或自然人身份證明8、董事、監事、經理的身份證複印件9、驗資報告10、住所使用證明（租房協議、產權證）11、公司註冊的經營範圍中，屬於法律法規規定必須報經審批的項目，需提交部門的批准文件資料齊全後所有手續由我們完成，報工商局審批後核發營業執照正副本，隨後工商所流程完畢。四、上海註冊水利工程公司組織機構代碼辦理需知1、《企業法人營業執照》原件、複印件各一份2、法定代表人、財務負責人和辦稅人員的《居民身份證》原件、複印件各一份3、組織機構代碼申請表格五、上海註冊水利工程公司稅務證辦理1、稅務申請表格一套2、營業執照正本原件或副本原件+複印件3、代碼正本原件或副本原件+複印件4、全體股東身份證複印件5、公章+法人章6、公司章程+股東會決議7、驗資報告8、租房協議+產權證複印件9、會計上崗證複印件六、上海註冊水利工程公司註冊資金規定（1）、一人有限公司最低註冊資本10萬元人民幣，註冊資本需一次性出資。（2）、二人或以上投資註冊的有限公司最低註冊資本3萬元人民幣，註冊資本可分批出資，首批不低於20%，其餘的在2年內到位就可以。


 

 

 
 

 


相關文獻


萬方數據期刊論文水利工程風險分析研究現狀綜述
										-
										水科學進展
										-
									200920
										(
										3
										)
									


萬方數據期刊論文汶川8.0級地震對紫坪鋪左岸壩前堆積體穩定性影響的監測分析
										-
										岩石力學與工程學報
										-
									200928
										(
										6
										)
									


萬方數據期刊論文跨區水利工程投入與受益的區域利益協調機制研究
										-
										水利學報
										-
									201041
										(
										8
										)
									



 

附圖
 上傳圖片


添加視頻 | 添加圖冊相關影像



擴展閱讀

1《中國水利工程行業市場前瞻與投資戰略規劃分析報告前瞻》






開放分類
                   
				    
展開 收起

我來補充


學科建造水利工程洪水能源科學



開放分類

 [刪除]


 [刪除]


 [刪除]


 [刪除]


 [刪除]



同義詞
		
				
展開 收起



同義詞


互動百科的詞條（含所附圖片）系由網友上傳，如果涉嫌侵權，請與客服聯繫，我們將按照法律之相關規定及時進行處理。未經許可，禁止商業網站等複製、抓取本站內容；合理使用者，請註明來源於www.baike.com。
 
 


登錄後使用互動百科的服務，將會得到個性化的提示和幫助，還有機會和專業認證智願者溝通。
互動百科用戶登錄註冊

 


此詞條還可添加 
			信息模塊

 
 

水利工程圖冊


WIKI熱度

編輯次數：27次 歷史版本

參與編輯人數：14位
最近更新時間：2016-07-08 15:12:15

立即申請榮譽共建機構
申請可獲得以下專屬權利：

精準流量
獨家入口
品牌增值


廣告


貢獻光榮榜
更多
創建者：lmjj

墨歡喜
天雨寒
虎豹.
1234wu
匿名用戶


地圖
 
 
 
 
 

相關詞條
編輯
葛洲壩
水災
火山
哥倫比亞河
拉普拉塔…
亞馬孫河
淮河
剛果河
都江堰




分類熱詞


心理學
uus
電子科學與技術
鐵
物理學


管理學
哲學
銀
文學
三角函數



 
 
 
 
 
 






請提意見
幫助中心
服務熱線：86-10-62303127（9:00-21:00）


關於我們
新聞中心
服務協議
互動合作
友情鏈接
招聘信息
聯繫我們
站點地圖
知識官網
百科營銷

互動百科 版權所有 Powered by HDwiki © 2017 股票代碼：835799









編輯

知識魔塊
信息模塊

討論

分享
新浪微博
微信
					掃描二維碼用手機瀏覽詞條
 新知社 QQ空間

贊











水利工程（水利專業術語）_百度百科















百度首頁




網頁
新聞
貼吧
知道
音樂
圖片
視頻
地圖
文庫
百科

















進入詞條全站搜索幫助










關閉





聲明：百科詞條人人可編輯，詞條創建和修改均免費，絕不存在官方及代理商付費代編，請勿上當受騙。詳情>>















首頁


分類

藝術
科學
自然
文化
地理
生活
社會
人物
經濟
體育
歷史



特色百科

歷史上的今天
數字博物館
史記·2016
城市百科
二戰百科
非遺百科



用戶

蝌蚪團
燃夢計劃
百科任務
百科商城



權威合作

合作模式
常見問題
聯繫方式



手機百科

網頁版



個人中心











水利工程是一個多義詞，請在下列義項上選擇瀏覽（共2個義項）
添加義項


▪水利專業術語
▪自然學科















收藏
查看我的收藏



0
有用+1
已投票



0





























水利工程
（水利專業術語）
編輯
鎖定



本詞條由“科普中國”百科科學詞條編寫與應用工作項目
審核
。



水利工程是用於控制和調配自然界的地表水和地下水，達到除害興利目的而修建的工程。也稱為水工程。水是人類生產和生活必不可少的寶貴資源，但其自然存在的狀態並不完全符合人類的需要。只有修建水利工程，才能控制水流，防止洪澇災害，併進行水量的調節和分配，以滿足人民生活和生產對水資源的需要。水利工程需要修建壩、堤、溢洪道、水閘、進水口、渠道、渡漕、筏道、魚道等不同類型的水工建築物，以實現其目標。




中文名

水利工程

外文名

water project

別    名

hydroproject


作    用

控制和調配地表水和地下水

目    的

除害興利目的而修建的工程

特    點

工程量大；投資多




目錄



1
分類


2
特點


3
可供水量


4
組成


5
規劃


6
發展


7
展望


8
建設










水利工程分類

按目的或服務對象可分為：防止洪水災害的防洪工程；防止旱、澇、漬災為農業生產服務的農田水利工程,或稱灌溉和排水工程;將水能轉化為電能的水力發電工程；改善和創建航運條件的航道和港口工程；為工業和生活用水服務，並處理和排除污水和雨水的城鎮供水和排水工程；防止水土流失和水質污染，維護生態平衡的水土保持工程和環境水利工程；保護和增進漁業生產的漁業水利工程；圍海造田，滿足工農業生產或交通運輸需要的海塗圍墾工程等。一項水利工程同時為防洪、灌溉、發電、航運等多種目標服務的，稱為綜合利用水利工




長江三峽水利樞紐工程

程。
蓄水工程指水庫和塘壩（不包括專為引水、提水工程修建的調節水庫），按大、中、小型水庫和塘壩分別統計。
引水工程指從河道、湖泊等地表水體自流引水的工程（不包括從蓄水、提水工程中引水的工程），按大、中、小型規模分別統計。 提水工程指利用揚水泵站從河道、湖泊等地表水體提水的工程（不包括從蓄水、引水工程中提水的工程），按大、中、小型規模分別統計。調水工程指水資源一級區或獨立流域之間的跨流域調水工程，蓄、引、提工程中均不包括調水工程的配套工程。地下水源工程指利用地下水的水井工程，按淺層地下水和深層承壓水分別統計。




水利工程特點

①有很強的系統性和綜合性。單項水利工程是同一流域，同一地區內各項水利工程的有機組成部分，這些工程既相輔相成，又相互制約；單項水利工程自身往往是綜合性的，各服務目標之間既緊密聯繫，又相互矛盾。水利工程和國民經濟的其他部門也是緊密相關的。規劃設計水利工程必須從全局出發，系統地、綜合地進行分析研究，才能得到最為經濟合理的優化方案。
②對環境有很大影響。水利工程不僅通過其建設任務對所在地區的經濟和社會發生影響，而且對江河、湖泊以及附近地區的自然面貌、生態環境、自然景觀，甚至對區域氣候，都將產生不同程度的影響。這種影響有利有弊，規劃設計時必須對這種影響進行充分估計，努力發揮水利工程的積極作用，消除其消極影響。





丹江口水利樞紐工程

③工作條件複雜。水利工程中各種水工建築物都是在難以確切把握的氣象、水文、地質等自然條件下進行施工和運行的，它們又多承受水的推力、浮力、滲透力、沖刷力等的作用，工作條件較其他建築物更為複雜。
④水利工程的效益具有隨機性，根據每年水文狀況不同而效益不同，農田水利工程還與氣象條件的變化有密切聯繫。影響面廣。
⑤水利工程一般規模大，技術複雜，工期較長，投資多，興建時必須按照基本建設程序和有關標準進行。




水利工程可供水量

可供水量分為單項工程可供水量與區域可供水量。一般來說，區域內相互聯繫的工程之間，具有一定的補償和調節作用，區域可供水量不是區域內各單項工程可供水量單相加之和。區域可供水量是由新增工程與原有工程所組成的供水系統，根據規划水平年的需水要求，經過調節計算後得出。
區域可供水量
區域可供水量是由若干個單項工程、計算單元的可供水量組成。區域可供水量，一般通過建立區域可供水量預測模型進行。在每個計算區域內，將存在相互聯繫的各類水利工程組成一個供水系統，按一定的原則和運行方式聯合調算。聯合調算要註意避免重覆計算供水量。對於區域內其他不存在相互聯繫的工程則按單項工程方法計算。可供水量計算主要採用典型年法，來水系列資料比較完整的區域，也有採用長系列調算法進行可供水量計算。
蓄水工程
指水庫和塘壩（不包括專為引水、提水工程修建的調節水庫），按大、中、小型水庫和塘壩分別統計。
提水工程
指利用揚水泵站從河道、湖泊等地表水體提水的工程（不包括從蓄水、引水工程中提水的工程），按大、中、小型規模分別統計。
調水工程
指水資源一級區或獨立流域之間的跨流域調水工程，蓄、引、提工程中均不包括調水工程的配套工程。
地下水源工程
指利用地下水的水井工程，按淺層地下水和深層承壓水分別統計。
地下水利用
研究地下水資源的開發和利用，使之更好地為國民經濟各部門（如城市給水、工礦企業用水、農業用水等）服務。農業上的地下水利用，就是合理開發與有效地利用地下水進行灌溉或排灌結合改良土壤以及農牧業給水。必鬚根據地區的水文地質條件、水文氣象條件和用水條件，進行全面規劃。
在對地下水資源進行評價和摸清可開采量的基礎上，制訂開發計劃與工程措施。在地下水利用規劃中要遵循以下原則：（1）充分利用地面水，合理開發地下水，做到地下水和地面水統籌安排；（2）應根據各含水層的補水能力，確定各層水井數目和開采量，做到分層取水，淺、中、深結合，合理佈局；（3）必須與旱澇鹼鹹的治理結合，統一規劃，做到既保障灌溉，又降低地下水位、防鹼防漬；既開采了地下水，又騰空了地下庫容；使汛期能存蓄降雨和地面徑流，併為治澇治鹼創造條件。在利用地下水的過程中，還須加強管理，避免盲目開采而引起不良後果。
淺層地下水
指與當地降水、地表水體有直接補排關係的潛水和與潛水有緊密水力聯繫的弱承壓水。
其他水源工程
包括集雨工程、污水處理再利用和海水利用等供水工程。
集雨工程
指用人工收集儲存屋頂




水利工程組成

無論是治理水害或開發水利，都需要通過一定數量的水工建築物來實現。按照功用，水工建築物大體分為三類：①擋水建築物；②泄水建築物；③專門水工建築物。由若干座水工建築物組成的集合體稱水利樞紐。





葛洲壩水利工程

擋水建築物
阻擋或攔束水流、擁高或調節上游水位的建築物，一般橫跨河道者稱為壩，沿水流方向在河道兩側修築者稱為堤。 壩是形成水庫的關鍵性工程。近代修建的壩，大多數採用當地土石料填築的土石壩或用混凝土灌築的重力壩，它依靠壩體自身的重量維持壩的穩定。當河谷狹窄時，可採用平面上呈弧線的拱壩。在缺乏足夠築壩材料時，可採用鋼筋混凝土的輕型壩（俗稱支墩壩），但它抵抗地震作用的能力和耐久性都較差。砌石壩是一種古老的壩，不易機械化施工，主要用於中小型工程。大壩設計中要解決的主要問題是壩體抵抗滑動或傾覆的穩定性、防止壩體自身的破裂和滲漏。土石壩或砂、土地基，防止滲流引起的土顆粒移動破壞（即所謂“管涌”和“流土”）占有更重要的地位。在地震區建壩時，還要註意壩體或地基中浸水飽和的無粘性砂料、在地震時發生強度突然消失而引起滑動的可能性，即所謂“液化現象”（見砂土液化）。
泄水建築物
能從水庫安全可靠地放泄多餘或需要水量的建築物。歷史上曾有不少土石壩，因洪水超過水庫容量而漫頂造成潰壩。為保證土石壩的安全，必須在水利樞紐中設河岸溢洪道，一旦水庫水位超過規定水位，多餘水量將經由溢洪道泄出。混凝土壩有較強的抗沖刷能力，可利用壩體過水泄洪，稱溢流壩。 修建泄水建築物，關鍵是要解決好消能和防蝕、抗磨問題。泄出的水流一般具有較大的動能和沖刷力，為保證下游安全，常利用水流內部的撞擊和摩擦消除能量，如水躍或挑流消能等。當流速大於每秒10～15米時，泄水建築物中行水部分的某些不規則地段可能出現所謂空蝕破壞，即由高速水流在臨近邊壁處出現的真空穴所造成的破壞。防止空蝕的主要方法是儘量採用流線形體形，提高壓力或降低流速，採用高強材料以及向局部地區通氣等。多泥沙河流或當水中夾帶有石渣時，還必須解決抵抗磨損的問題。
專門水工建築物
除上述兩類常見的一般性建築物外，為某一專門目的或為完成某一特定任務所設的建築物。渠道是輸水建築物，多數用於灌溉和引水工程。當遇高山擋路，可盤山繞行或開鑿輸水隧洞穿過（見水工隧洞）；如與河、溝相交，則需設渡槽或倒虹吸，此外還有同橋梁、涵洞等交叉的建築物。水力發電站樞紐按其廠房位置和引水方式有河床式、壩後式、引水道式和地下式等。水電站建築物主要有集中水位落差的引水系統，防止突然停車時產生過大水擊壓力的調壓系統，水電站廠房以及尾水系統等。通過水電站建築物的流速一般較小，但這些建築物往往承受著較大的水壓力，因此，許多部位要用鋼結構。水庫建成後大壩阻攔了船隻、木筏、竹筏以及魚類回游等的原有通路,對航運和養殖的影響較大。為此,應專門修建過船、過筏、過魚的船閘、筏道和魚道。這些建築物具有較強的地方性，修建前要作專門研究。




水利工程規劃

水利工程規劃的目的是全面考慮、合理安排地面和地下水資源的控制、開發和使用方式，最大限度地做到安全、經濟、高效。水利工程規劃要解決的問題大體有以下幾個方面：根據需要和可能確定各種治理和開發目標，按照當地的自然、經濟和社會條件選擇合理的工程規模，制定安全、經濟、運用管理方便的工程佈置方案。因此，應首先做好被治理或開發河流流域的水文和水文地質方面的調查研究工作，掌握水資源的分佈狀況。





都江堰水利工程

工程地質資料是水利工程規劃中必須先行研究的又一重要內容，以判別修建工程的可能性和為水工建築物選擇有利的地基條件並研究必要的補強措施。水庫是治理河流和開發水資源中普遍應用的工程形式。在深山狹谷或丘陵地帶，可利用天然地形構成的盆地儲存多餘的或暫時不用的水,供需要時引用。因此,水庫的作用主要是調節徑流分配，提高水位，集中水面落差，以便為防洪、發電、灌溉、供水、養殖和改善下游通航創造條件。為此，在規劃階段，須沿河道選擇適當的位置或盆地的喉部，修建擋水的攔河大壩以及向下游宣泄河水的水工建築物。在多泥沙河流，常因泥沙淤積使水庫容積逐年減少，因此還要估計水庫壽命或配備專門的沖沙、排沙設施。
現代大型水利工程，很多具有綜合開發治理的特點，故常稱“綜合利用水利樞紐工程”。它往往兼顧了所在流域的防洪、灌溉、發電、通航、河道治理和跨流域的引水或調水，有時甚至還包括養殖、給水或其它開發目標。然而，要制止水患開發水利，除建設大型骨幹工程外，還要依靠大量的中小型水利工程，從面上控制水情並保證大型工程得以發揮骨幹效用。防止對周圍環境的污染，保持生態平衡，也是水利工程規劃中必須研究的重要課題。由此可見，水利工程不僅是一門綜合性很強的科學技術，而且還受到社會、經濟甚至政治因素的制約。




水利工程發展

我國人均水資源並不豐富，且時空分佈不均，這決定了我國是一個水旱災害頻繁而嚴重的國家。
《2013-2017年中國水利工程行業領先企業經營策略與優劣勢分析報告》顯示，我國水旱災害直接經濟損失占各類自然災害直接經濟總損失的60%左右。1990年以來，全國年均洪澇災害損失在1100億元左右，約占同期GDP 的2%;遇到發生流域性大洪水的年份，該比例可達3%-4%。水利工程行業是一個極度依賴政府投資的行業，而水利投資長期滯後導致了減災效果的不理想。
數據顯示，水利投資占FAI、GDP的比重在2002-2008年間持續下滑，2009年由於四萬億投資拉動而略有上升，占到GDP的0.56%，2010年水利建設投資為2328億元，占到GDP的0.58%，但依然保持較低水平，無法適應經濟高速發展，預計水利建設將全面加速。
國務院2010年11月份批覆的《全國水資源綜合規劃》為未來15-20年間水資源的綜合開發、利用、節約和保護等定下主基調，水資源正式上升到國家資源戰略層面的高度。由於關乎通脹和糧食安全問題，農村水利將成為重中之重；而為達到節能減排目標，水電建設預計仍將持續快速推進。
水利行業從2009年開始已邁入了加速通道，上行趨勢已經確立，“十二五”期間水利建設投資將達到2.11萬億，比“十一五”期間增長183.85%。
隨著水利工程行業競爭的不斷加劇，大型水利工程企業間併購整合與資本運作日趨頻繁，國內優秀的水利工程企業愈來愈重視對行業市場的研究，特別是對企業發展環境和客戶需求趨勢變化的深入研究。正因為如此，一大批國內優秀的水利工程企業迅速崛起，逐漸成為水利工程行業中的翹楚!




水利工程展望

當前世界多數國家出現人口增長過快，可利用水資源不足，城鎮供水緊張，能源短缺，生態環境惡化等重大問題，都與水有密切聯繫。水災防治、水資源的充分開發利用成為當代社會經濟發展的重大課題。水利工程的發展趨勢主要是：①防治水災的工程措施與非工程措施進一步結合,非工程措施越來越占重要地位;②水資源的開發利用進一步向綜合性、多目標發展；③水利工程的作用，不僅要滿足日益增長的人民生活和工農業生產發展的需要，而且要更多地為保護和改善環境服務；④大區域、大範圍的水資源調配工程，如跨流域引水工程，將進一步發展；⑤由於新的勘探技術、新的分析計算和監測試驗手段以及新材料、新工藝的發展，複雜地基和高水頭水工建築物將隨之得到發展，當地材料將得到更廣泛的應用，水工建築物的造價將會進一步降低；⑥水資源和水利工程的統一管理、統一調度將逐步加強。


